*HEADING
cubit(/Users/JBR/libs_src/Dealii/JBR/Mesh_Files/pad_mesh_3.inp): 06/27/2016: 17:
version: 15.1
**
********************************** P A R T S **********************************
*PART, NAME=Part-Default
**
********************************** N O D E S **********************************
*NODE, NSET=ALLNODES
       1,    2.087500e+00,    1.312500e+00,    1.215167e+00
       2,    2.025000e+00,    1.312500e+00,    1.215167e+00
       3,    1.988388e+00,    1.400888e+00,    1.215167e+00
       4,    2.032583e+00,    1.445083e+00,    1.215167e+00
       5,    2.087500e+00,    1.312500e+00,    1.048500e+00
       6,    2.025000e+00,    1.312500e+00,    1.048500e+00
       7,    1.988388e+00,    1.400888e+00,    1.048500e+00
       8,    2.032583e+00,    1.445083e+00,    1.048500e+00
       9,    1.900000e+00,    1.437500e+00,    1.215167e+00
      10,    1.900000e+00,    1.500000e+00,    1.215167e+00
      11,    1.900000e+00,    1.437500e+00,    1.048500e+00
      12,    1.900000e+00,    1.500000e+00,    1.048500e+00
      13,    1.811612e+00,    1.400888e+00,    1.215167e+00
      14,    1.767417e+00,    1.445083e+00,    1.215167e+00
      15,    1.811612e+00,    1.400888e+00,    1.048500e+00
      16,    1.767417e+00,    1.445083e+00,    1.048500e+00
      17,    1.775000e+00,    1.312500e+00,    1.215167e+00
      18,    1.712500e+00,    1.312500e+00,    1.215167e+00
      19,    1.775000e+00,    1.312500e+00,    1.048500e+00
      20,    1.712500e+00,    1.312500e+00,    1.048500e+00
** ... 10560 like lines cut
**
********************************** E L E M E N T S ****************************
*ELEMENT, TYPE=C3D8R, ELSET=EB1
       1,       1,       2,       3,       4,       5,       6,       7,       8
       2,       4,       3,       9,      10,       8,       7,      11,      12
       3,      10,       9,      13,      14,      12,      11,      15,      16
       4,      14,      13,      17,      18,      16,      15,      19,      20
       5,      18,      17,      21,      22,      20,      19,      23,      24
       6,      22,      21,      25,      26,      24,      23,      27,      28
       7,      26,      25,      29,      30,      28,      27,      31,      32
       8,      30,      29,       2,       1,      32,      31,       6,       5
       9,      33,      34,      35,      36,      37,      38,      39,      40
      10,      36,      35,      41,      42,      40,      39,      43,      44
      11,      42,      41,      45,      46,      44,      43,      47,      48
      12,      46,      45,      49,      50,      48,      47,      51,      52
      13,      50,      49,      53,      54,      52,      51,      55,      56
      14,      54,      53,      57,      58,      56,      55,      59,      60
      15,      58,      57,      61,      62,      60,      59,      63,      64
      16,      62,      61,      34,      33,      64,      63,      38,      37
      17,      65,      66,      67,      68,      69,      70,      71,      72
      18,      68,      67,      73,      74,      72,      71,      75,      76
      19,      74,      73,      77,      78,      76,      75,      79,      80
      20,      78,      77,      81,      82,      80,      79,      83,      84
** ... 4225 like lines cut
*ELEMENT, TYPE=C3D8R, ELSET=EB2
    4246,    1218,    6133,    6134,    1220,    1216,    6135,    6136,    2726
    4247,    6133,    6137,    6138,    6134,    6135,    6139,    6140,    6136
    4248,    1220,    6134,    6141,    1222,    2726,    6136,    6142,    2730
    4249,    6134,    6138,    6143,    6141,    6136,    6140,    6144,    6142
    4250,    1222,    6141,    6145,    1224,    2730,    6142,    6146,    2734
    4251,    6141,    6143,    6147,    6145,    6142,    6144,    6148,    6146
    4252,    1224,    6145,    6149,    1226,    2734,    6146,    6150,    2738
    4253,    6145,    6147,    6151,    6149,    6146,    6148,    6152,    6150
    4254,    1226,    6149,    6153,    1228,    2738,    6150,    6154,    2742
    4255,    6149,    6151,    6155,    6153,    6150,    6152,    6156,    6154
    4256,    1228,    6153,    6157,    1230,    2742,    6154,    6158,    2746
    4257,    6153,    6155,    6159,    6157,    6154,    6156,    6160,    6158
    4258,    1230,    6157,    6161,    1232,    2746,    6158,    6162,    2750
    4259,    6157,    6159,    6163,    6161,    6158,    6160,    6164,    6162
    4260,    1232,    6161,    6165,    1234,    2750,    6162,    6166,    2754
    4261,    6161,    6163,    6167,    6165,    6162,    6164,    6168,    6166
    4262,    1234,    6165,    6169,    1236,    2754,    6166,    6170,    2758
    4263,    6165,    6167,    6171,    6169,    6166,    6168,    6172,    6170
    4264,    1236,    6169,    6173,    1238,    2758,    6170,    6174,    2762
    4265,    6169,    6171,    6175,    6173,    6170,    6172,    6176,    6174
** ... 420 like lines cut
*ELEMENT, TYPE=C3D8R, ELSET=EB3
    4686,    6709,    6710,    6711,    6712,    6713,    6714,    6715,    6716
    4687,    6717,    6709,    6712,    6718,    6719,    6713,    6716,    6720
    4688,    6721,    6717,    6718,    6722,    6723,    6719,    6720,    6724
    4689,    6725,    6726,    6727,    6728,    6729,    6730,    6731,    6732
    4690,    6727,    6733,    6734,    6728,    6731,    6339,    6327,    6732
    4691,    6726,    6735,    6733,    6727,    6730,    6351,    6339,    6731
    4692,    6717,    6736,    6737,    6709,    6719,    6268,    6266,    6713
    4693,    6721,    6738,    6736,    6717,    6723,    6270,    6268,    6719
    4694,    6739,    6740,    6741,    6742,    6743,    6744,    6745,    6746
    4695,    6742,    6747,    6748,    6739,    6746,    6749,    6750,    6743
    4696,    6751,    6752,    6753,    6754,    6755,    6756,    6757,    6758
    4697,    6759,    6760,    6761,    6762,    6763,    6764,    6765,    6766
    4698,    6767,    6739,    6748,    6768,    6769,    6743,    6750,    6770
    4699,    6771,    6767,    6768,    6772,    6773,    6769,    6770,    6774
    4700,    6775,    6771,    6772,    6776,    6777,    6773,    6774,    6778
    4701,    6779,    6775,    6776,    6780,    6781,    6777,    6778,    6782
    4702,    6752,    6779,    6780,    6753,    6756,    6781,    6782,    6757
    4703,    6783,    6754,    6753,    6784,    6785,    6758,    6757,    6786
    4704,    6787,    6788,    6783,    6784,    6789,    6790,    6785,    6786
    4705,    6791,    6787,    6784,    6753,    6792,    6789,    6786,    6757
** ... 2997 like lines cut
*ELEMENT, TYPE=C3D8R, ELSET=EB4
    7703,   10197,   10198,   10199,   10200,     104,     103,     102,     101
    7704,   10201,   10202,   10198,   10197,     108,     107,     103,     104
    7705,   10203,   10204,   10202,   10201,     112,     111,     107,     108
    7706,   10205,   10206,   10204,   10203,     116,     115,     111,     112
    7707,   10207,   10208,   10206,   10205,     120,     119,     115,     116
    7708,   10209,   10210,   10208,   10207,     124,     123,     119,     120
    7709,   10211,   10212,   10210,   10209,     128,     127,     123,     124
    7710,   10200,   10199,   10212,   10211,     101,     102,     127,     128
    7711,   10213,   10214,   10215,   10216,   10197,   10198,   10199,   10200
    7712,   10217,   10218,   10214,   10213,   10201,   10202,   10198,   10197
    7713,   10219,   10220,   10218,   10217,   10203,   10204,   10202,   10201
    7714,   10221,   10222,   10220,   10219,   10205,   10206,   10204,   10203
    7715,   10223,   10224,   10222,   10221,   10207,   10208,   10206,   10205
    7716,   10225,   10226,   10224,   10223,   10209,   10210,   10208,   10207
    7717,   10227,   10228,   10226,   10225,   10211,   10212,   10210,   10209
    7718,   10216,   10215,   10228,   10227,   10200,   10199,   10212,   10211
    7719,   10229,   10230,   10231,   10232,   10213,   10214,   10215,   10216
    7720,   10233,   10234,   10230,   10229,   10217,   10218,   10214,   10213
    7721,   10235,   10236,   10234,   10233,   10219,   10220,   10218,   10217
    7722,   10237,   10238,   10236,   10235,   10221,   10222,   10220,   10219
** ... 204 like lines cut
**
********************************** S I D E S E T S **********************************
*ELSET, ELSET=SS1_S3
     401,     410,     430,     431,     965,     974,     994,     995,    1529,    1538,
    1558,    1559,    2042,    2043,    2673,    2674,    3304,    3305
*ELSET, ELSET=SS1_S4
      48,      58,     369,     380,     399,     434,     612,     622,     933,     944,
     963,     998,    1176,    1186,    1497,    1508,    1527,    1562
*ELSET, ELSET=SS1_S5
      37,      41,      42,      49,     601,     605,     606,     613,    1165,    1169,
    1170,    1177,    2449,    2450,    2451,    2453,    2454,    2456,    2459,    2461,
    2463,    2464,    2465,    2474,    2476,    2477,    2484,    2485,    2486,    3080,
    3081,    3082,    3084,    3085,    3087,    3090,    3092,    3094,    3095,    3096,
    3105,    3107,    3108,    3115,    3116,    3117,    3711,    3712,    3713,    3715,
    3716,    3718,    3721,    3723,    3725,    3726,    3727,    3736,    3738,    3739,
    3746,    3747,    3748
*ELSET, ELSET=SS1_S6
     327,     433,     482,     891,     997,    1046,    1455,    1561,    1610
*SURFACE, NAME=SS1
SS1_S3, S3
SS1_S4, S4
SS1_S5, S5
SS1_S6, S6
*ELSET, ELSET=SS2_S5
    5650
*SURFACE, NAME=SS2
SS2_S5, S5
**
********************************** P R O P E R T I E S ************************
*SOLID SECTION, ELSET=EB1, MATERIAL=Default-Steel
*SOLID SECTION, ELSET=EB2, MATERIAL=Default-Steel
*SOLID SECTION, ELSET=EB3, MATERIAL=Default-Steel
*SOLID SECTION, ELSET=EB4, MATERIAL=Default-Steel
**
*END PART
**
**
**
********************************** E N D   P A R T S **********************************
**
**
********************************** A S S E M B L Y ************************************
**
*ASSEMBLY, NAME=ASSEMBLY1
**
*INSTANCE, NAME=Part-Default_1, PART=Part-Default
*END INSTANCE
**
*END ASSEMBLY
**
**
**
*MATERIAL, NAME = DEFAULT-STEEL
*ELASTIC, TYPE=ISOTROPIC
2.068000e+05, 2.900000e-01
*DENSITY
7.000000e-06
*CONDUCTIVITY,TYPE=ISO
4.500000e-02
*SPECIFIC HEAT
5.000000e+02
**
*MATERIAL, NAME = DEFAULT-STEEL2
*ELASTIC, TYPE=ISOTROPIC
2.068000e+05, 2.900000e-01
*DENSITY
7.000000e-06
*CONDUCTIVITY,TYPE=ISO
4.500000e-02
*SPECIFIC HEAT
5.000000e+02
**
*MATERIAL, NAME = Default-Steel
*ELASTIC, TYPE=ISOTROPIC
2.068000e+05, 2.900000e-01
*DENSITY
7.000000e-06
*CONDUCTIVITY,TYPE=ISO
4.500000e-02
*SPECIFIC HEAT
5.000000e+02
**
**
************************************** H I S T O R Y *************************************
**
*PREPRINT
**
**************************************** S T E P 1 ***************************************
*STEP,INC=100,NAME=DEFAULT SET
**
*STATIC
1, 1, 1e-05, 1
**
**
**
**
*END STEP
